
 ANSYS Mechanical Enterprise                       


 *------------------------------------------------------------------*
 |                                                                  |
 |   W E L C O M E   T O   T H E   A N S Y S (R)  P R O G R A M     |
 |                                                                  |
 *------------------------------------------------------------------*




 ***************************************************************
 *            ANSYS Release 19.2     LEGAL NOTICES             *
 ***************************************************************
 *                                                             *
 * Copyright 1971-2018 ANSYS, Inc.  All rights reserved.       *
 * Unauthorized use, distribution or duplication is            *
 * prohibited.                                                 *
 *                                                             *
 * Ansys is a registered trademark of ANSYS, Inc. or its       *
 * subsidiaries in the United States or other countries.       *
 * See the ANSYS, Inc. online documentation or the ANSYS, Inc. *
 * documentation CD or online help for the complete Legal      *
 * Notice.                                                     *
 *                                                             *
 ***************************************************************
 *                                                             *
 * THIS ANSYS SOFTWARE PRODUCT AND PROGRAM DOCUMENTATION       *
 * INCLUDE TRADE SECRETS AND CONFIDENTIAL AND PROPRIETARY      *
 * PRODUCTS OF ANSYS, INC., ITS SUBSIDIARIES, OR LICENSORS.    *
 * The software products and documentation are furnished by    *
 * ANSYS, Inc. or its subsidiaries under a software license    *
 * agreement that contains provisions concerning               *
 * non-disclosure, copying, length and nature of use,          *
 * compliance with exporting laws, warranties, disclaimers,    *
 * limitations of liability, and remedies, and other           *
 * provisions.  The software products and documentation may be *
 * used, disclosed, transferred, or copied only in accordance  *
 * with the terms and conditions of that software license      *
 * agreement.                                                  *
 *                                                             *
 * ANSYS, Inc. is a UL registered                              *
 * ISO 9001:2008 company.                                      *
 *                                                             *
 ***************************************************************
 *                                                             *
 * This product is subject to U.S. laws governing export and   *
 * re-export.                                                  *
 *                                                             *
 * For U.S. Government users, except as specifically granted   *
 * by the ANSYS, Inc. software license agreement, the use,     *
 * duplication, or disclosure by the United States Government  *
 * is subject to restrictions stated in the ANSYS, Inc.        *
 * software license agreement and FAR 12.212 (for non-DOD      *
 * licenses).                                                  *
 *                                                             *
 ***************************************************************

 Release 19.2
     
 Point Releases and Patches installed:   
     
 ANSYS, Inc. Products Release 19.2   
 SpaceClaim Release 19.2 
 AIM Release 19.2
 Autodyn Release 19.2
 LS-DYNA Release 19.2
 CFX (includes CFD-Post) Release 19.2
 Chemkin Release 19.2
 EnSight Release 19.2
 FENSAP-ICE Release 19.2 
 Fluent (includes CFD-Post) Release 19.2 
 Forte Release 19.2  
 Polyflow (includes CFD-Post) Release 19.2   
 TurboGrid Release 19.2  
 ICEM CFD Release 19.2   
 Aqwa Release 19.2   
 Mechanical Products Release 19.2
 Icepak (includes CFD-Post) Release 19.2 
 ACIS Geometry Interface Release 19.2
 AutoCAD Geometry Interface Release 19.2 
 Catia, Version 4 Geometry Interface Release 19.2
 Catia, Version 6 Geometry Interface Release 19.2
 Creo Elements/Direct Modeling Geometry Interface Release 19.2   
 Creo Parametric Geometry Interface Release 19.2 
 Inventor Geometry Interface Release 19.2
 JTOpen Geometry Interface Release 19.2  
 NX Geometry Interface Release 19.2  
 Parasolid Geometry Interface  Release 19.2  
 Solid Edge Geometry Interface Release 19.2  
 SOLIDWORKS Geometry Interface Release 19.2  
 ANSYS, Inc. License Manager Release 19.2


          *****  ANSYS COMMAND LINE ARGUMENTS  *****
  BATCH MODE REQUESTED (-b)    = NOLIST
  INPUT FILE COPY MODE (-c)    = COPY
  DISTRIBUTED MEMORY PARALLEL REQUESTED
       2 PARALLEL PROCESSES REQUESTED WITH SINGLE THREAD PER PROCESS
    TOTAL OF     2 CORES REQUESTED
  MPI OPTION                   = INTELMPI
  INPUT FILE NAME              = F:\Learning\6 семестр\КСКР\LAB_1\_ProjectScratch\Scr11E1\dummy.dat
  OUTPUT FILE NAME             = F:\Learning\6 семестр\КСКР\LAB_1\_ProjectScratch\Scr11E1\solve.out
  START-UP FILE MODE           = NOREAD
  STOP FILE MODE               = NOREAD

 RELEASE= Release 19.2         BUILD= 19.2      UP20180808   VERSION=WINDOWS x64 
 CURRENT JOBNAME=file0  23:55:26  JUN 04, 2020 CP=      0.328


 PARAMETER _DS_PROGRESS =     999.0000000    

 /INPUT FILE= ds.dat  LINE=       0



 *** NOTE ***                            CP =       0.609   TIME= 23:55:28
 The /CONFIG,NOELDB command is not valid in a Distributed ANSYS          
 solution.  Command is ignored.                                          

 *GET  _WALLSTRT  FROM  ACTI  ITEM=TIME WALL  VALUE=  23.9244444    

 TITLE= 
 lab4--Static Structural (A5)                                                  


 SET PARAMETER DIMENSIONS ON  _WB_PROJECTSCRATCH_DIR
  TYPE=STRI  DIMENSIONS=      248        1        1

 PARAMETER _WB_PROJECTSCRATCH_DIR(1) = F:\Learning\6 семестр\КСКР\LAB_1\_ProjectScratch\Scr11E1\

 SET PARAMETER DIMENSIONS ON  _WB_SOLVERFILES_DIR
  TYPE=STRI  DIMENSIONS=      248        1        1

 PARAMETER _WB_SOLVERFILES_DIR(1) = F:\Learning\6 семестр\КСКР\LAB_1\lab4_files\dp0\SYS-1\MECH\

 SET PARAMETER DIMENSIONS ON  _WB_USERFILES_DIR
  TYPE=STRI  DIMENSIONS=      248        1        1

 PARAMETER _WB_USERFILES_DIR(1) = F:\Learning\6 семестр\КСКР\LAB_1\lab4_files\user_files\
 --- Data in consistent MKS units. See Solving Units in the help system for more

 MKS UNITS SPECIFIED FOR INTERNAL    
  LENGTH        (l)  = METER (M)
  MASS          (M)  = KILOGRAM (KG)
  TIME          (t)  = SECOND (SEC)
  TEMPERATURE   (T)  = CELSIUS (C)
  TOFFSET            = 273.0
  CHARGE        (Q)  = COULOMB
  FORCE         (f)  = NEWTON (N) (KG-M/SEC2)
  HEAT               = JOULE (N-M)

  PRESSURE           = PASCAL (NEWTON/M**2)
  ENERGY        (W)  = JOULE (N-M)
  POWER         (P)  = WATT (N-M/SEC)
  CURRENT       (i)  = AMPERE (COULOMBS/SEC)
  CAPACITANCE   (C)  = FARAD
  INDUCTANCE    (L)  = HENRY
  MAGNETIC FLUX      = WEBER
  RESISTANCE    (R)  = OHM
  ELECTRIC POTENTIAL = VOLT

 INPUT  UNITS ARE ALSO SET TO MKS 

 *** ANSYS - ENGINEERING ANALYSIS SYSTEM  RELEASE Release 19.2     19.2     ***
 DISTRIBUTED ANSYS Mechanical Enterprise                       

 00000000  VERSION=WINDOWS x64   23:55:28  JUN 04, 2020 CP=      0.625

 lab4--Static Structural (A5)                                                  



          ***** ANSYS ANALYSIS DEFINITION (PREP7) *****
 *********** Nodes for the whole assembly ***********
 *********** Elements for Body 1 "Solid" ***********
 *********** Elements for Body 2 "Solid" ***********
 *********** Send User Defined Coordinate System(s) ***********
 *********** Set Reference Temperature ***********
 *********** Send Materials ***********
 *********** Create Contact "Contact Region" ***********
             Real Constant Set For Above Contact Is 4 & 3
 *********** Fixed Supports ***********
 *********** Define Pressure Using Surface Effect Elements ***********


 ***** ROUTINE COMPLETED *****  CP =         1.984


 --- Number of total nodes = 73128
 --- Number of contact elements = 1860
 --- Number of spring elements = 0
 --- Number of bearing elements = 0
 --- Number of solid elements = 45518
 --- Number of condensed parts = 0
 --- Number of total elements = 47378

 *GET  _WALLBSOL  FROM  ACTI  ITEM=TIME WALL  VALUE=  23.9247222    
 ****************************************************************************
 *************************    SOLUTION       ********************************
 ****************************************************************************

 *****  ANSYS SOLUTION ROUTINE  *****


 PERFORM A STATIC ANALYSIS
  THIS WILL BE A NEW ANALYSIS

 USE SPARSE MATRIX DIRECT SOLVER

 CONTACT INFORMATION PRINTOUT LEVEL       1

 DO NOT COMBINE ELEMENT MATRIX FILES (.emat) AFTER DISTRIBUTED PARALLEL SOLUTION

 DO NOT COMBINE ELEMENT SAVE DATA FILES (.esav) AFTER DISTRIBUTED PARALLEL SOLUTION

 NLDIAG: Nonlinear diagnostics CONT option is set to ON. 
         Writing frequency : each ITERATION.

 DO NOT SAVE ANY RESTART FILES AT ALL
 ****************************************************
 ******************* SOLVE FOR LS 1 OF 1 ****************

 SELECT       FOR ITEM=TYPE COMPONENT=    
  IN RANGE         5 TO          5 STEP          1

        412  ELEMENTS (OF      47378  DEFINED) SELECTED BY  ESEL  COMMAND.

 SELECT      ALL NODES HAVING ANY ELEMENT IN ELEMENT SET.

        898 NODES (OF      73128  DEFINED) SELECTED FROM
      412 SELECTED ELEMENTS BY NSLE COMMAND.

 GENERATE SURFACE LOAD PRES ON SURFACE DEFINED BY ALL SELECTED NODES
 VALUES=  10000.0000      0.00000000    

 NUMBER OF PRES ELEMENT FACE LOADS STORED =        412

 ALL SELECT   FOR ITEM=NODE COMPONENT=    
  IN RANGE         1 TO      73128 STEP          1

      73128  NODES (OF      73128  DEFINED) SELECTED BY NSEL  COMMAND.

 ALL SELECT   FOR ITEM=ELEM COMPONENT=    
  IN RANGE         1 TO      47378 STEP          1

      47378  ELEMENTS (OF      47378  DEFINED) SELECTED BY  ESEL  COMMAND.

 ALL SELECT   FOR ITEM=ELEM COMPONENT=    
  IN RANGE         1 TO      47378 STEP          1

      47378  ELEMENTS (OF      47378  DEFINED) SELECTED BY  ESEL  COMMAND.

 PRINTOUT RESUMED BY /GOP

 USE       1 SUBSTEPS INITIALLY THIS LOAD STEP FOR ALL  DEGREES OF FREEDOM
 FOR AUTOMATIC TIME STEPPING:
   USE      1 SUBSTEPS AS A MAXIMUM
   USE      1 SUBSTEPS AS A MINIMUM

 TIME=  2.0000    

 ERASE THE CURRENT DATABASE OUTPUT CONTROL TABLE.


 WRITE ALL  ITEMS TO THE DATABASE WITH A FREQUENCY OF NONE
   FOR ALL APPLICABLE ENTITIES

 WRITE NSOL ITEMS TO THE DATABASE WITH A FREQUENCY OF ALL 
   FOR ALL APPLICABLE ENTITIES

 WRITE RSOL ITEMS TO THE DATABASE WITH A FREQUENCY OF ALL 
   FOR ALL APPLICABLE ENTITIES

 WRITE STRS ITEMS TO THE DATABASE WITH A FREQUENCY OF ALL 
   FOR ALL APPLICABLE ENTITIES

 WRITE EPEL ITEMS TO THE DATABASE WITH A FREQUENCY OF ALL 
   FOR ALL APPLICABLE ENTITIES

 WRITE EPPL ITEMS TO THE DATABASE WITH A FREQUENCY OF ALL 
   FOR ALL APPLICABLE ENTITIES

 NONLINEAR STABILIZATION CONTROL:
 KEY=OFF 


 *GET  ANSINTER_  FROM  ACTI  ITEM=INT        VALUE=  0.00000000    

 *IF  ANSINTER_                         ( =   0.00000     )  NE  
      0                                 ( =   0.00000     )  THEN    

 *ENDIF

 *** NOTE ***                            CP =       2.344   TIME= 23:55:30
 The automatic domain decomposition logic has selected the MESH domain   
 decomposition method with 2 processes per solution.                     

 *****  ANSYS SOLVE    COMMAND  *****

 *** WARNING ***                         CP =       2.453   TIME= 23:55:30
 Element shape checking is currently inactive.  Issue SHPP,ON or         
 SHPP,WARN to reactivate, if desired.                                    

 *** NOTE ***                            CP =       2.625   TIME= 23:55:30
 The model data was checked and warning messages were found.             
  Please review output or errors file ( F:\Learning\6                    
 семестр\КСКР\LAB_1\_ProjectScratch\Scr11E1\file0.err ) for these        
 warning messages.                                                       

 *** SELECTION OF ELEMENT TECHNOLOGIES FOR APPLICABLE ELEMENTS ***
      --- GIVE SUGGESTIONS AND RESET THE KEY OPTIONS ---

 ELEMENT TYPE    1 IS SOLID187. IT IS NOT ASSOCIATED WITH FULLY INCOMPRESSIBLE
 HYPERELASTIC MATERIALS. NO SUGGESTION IS AVAILABLE AND NO RESETTING IS NEEDED.

 ELEMENT TYPE    2 IS SOLID186. KEYOPT(2)=0 IS SUGGESTED AND HAS BEEN RESET.
  KEYOPT(1-12)=    0    0    0    0    0    0    0    0    0    0    0    0



 *** ANSYS - ENGINEERING ANALYSIS SYSTEM  RELEASE Release 19.2     19.2     ***
 DISTRIBUTED ANSYS Mechanical Enterprise                       

 00000000  VERSION=WINDOWS x64   23:55:30  JUN 04, 2020 CP=      2.641

 lab4--Static Structural (A5)                                                  



                       S O L U T I O N   O P T I O N S

   PROBLEM DIMENSIONALITY. . . . . . . . . . . . .3-D                  
   DEGREES OF FREEDOM. . . . . . UX   UY   UZ  
   ANALYSIS TYPE . . . . . . . . . . . . . . . . .STATIC (STEADY-STATE)
   OFFSET TEMPERATURE FROM ABSOLUTE ZERO . . . . .  273.15    
   EQUATION SOLVER OPTION. . . . . . . . . . . . .SPARSE             
   GLOBALLY ASSEMBLED MATRIX . . . . . . . . . . .SYMMETRIC  

 *** WARNING ***                         CP =       2.672   TIME= 23:55:30
 Material number 5 (used by element 46967) should normally have at least 
 one MP or one TB type command associated with it.  Output of energy by  
 material may not be available.                                          

 *** NOTE ***                            CP =       2.688   TIME= 23:55:30
 The step data was checked and warning messages were found.              
  Please review output or errors file ( F:\Learning\6                    
 семестр\КСКР\LAB_1\_ProjectScratch\Scr11E1\file0.err ) for these        
 warning messages.                                                       

 *** NOTE ***                            CP =       2.688   TIME= 23:55:30
 The conditions for direct assembly have been met.  No .emat or .erot    
 files will be produced.                                                 

 *** NOTE ***                            CP =       2.938   TIME= 23:55:31
 Symmetric Deformable- deformable contact pair identified by real        
 constant set 3 and contact element type 3 has been set up.  The         
 companion pair has real constant set ID 4.  Both pairs should have the  
 same behavior.                                                          
 ANSYS will deactivate the current pair and keep its companion pair,     
 resulting in asymmetric contact.                                        
 Linear contact is defined
 Contact algorithm: Augmented Lagrange method
 Contact detection at: Gauss integration point
 Contact stiffness factor FKN                  10.000    
 The resulting initial contact stiffness      0.16000E+17
 Default penetration tolerance factor FTOLN   0.10000    
 The resulting penetration tolerance          0.22234E-03
 Default opening contact stiffness OPSF will be used.
 Default tangent stiffness factor FKT          1.0000    
 Use constant contact stiffness
 Default Max. friction stress TAUMAX          0.10000E+21
 Average contact surface length               0.30752E-02
 Average contact pair depth                   0.22234E-02
 Default pinball region factor PINB           0.25000    
 The resulting pinball region                 0.55586E-03
 Initial penetration/gap is excluded.
 Bonded contact (always) is defined.

 *** NOTE ***                            CP =       2.938   TIME= 23:55:31
 Max.  Initial penetration 1.040834086E-17 was detected between contact  
 element 45856 and target element 46657.                                 
 ****************************************
  

 *** NOTE ***                            CP =       2.938   TIME= 23:55:31
 Symmetric Deformable- deformable contact pair identified by real        
 constant set 4 and contact element type 3 has been set up.  The         
 companion pair has real constant set ID 3.  Both pairs should have the  
 same behavior.                                                          
 ANSYS will keep the current pair and deactivate its companion pair,     
 resulting in asymmetric contact.                                        
 Linear contact is defined
 Contact algorithm: Augmented Lagrange method
 Contact detection at: Gauss integration point
 Contact stiffness factor FKN                  10.000    
 The resulting initial contact stiffness      0.16000E+17
 Default penetration tolerance factor FTOLN   0.10000    
 The resulting penetration tolerance          0.25000E-03
 Default opening contact stiffness OPSF will be used.
 Default tangent stiffness factor FKT          1.0000    
 Use constant contact stiffness
 Default Max. friction stress TAUMAX          0.10000E+21
 Average contact surface length               0.17010E-02
 Average contact pair depth                   0.25000E-02
 Default pinball region factor PINB           0.25000    
 The resulting pinball region                 0.62500E-03
 Initial penetration/gap is excluded.
 Bonded contact (always) is defined.

 *** NOTE ***                            CP =       2.938   TIME= 23:55:31
 Max.  Initial penetration 1.040834086E-17 was detected between contact  
 element 46184 and target element 45642.                                 
 ****************************************
  

 *** WARNING ***                         CP =       2.938   TIME= 23:55:31
 Maximum contact stiffness 1.6E+16 is too big which can cause an         
 accuracy problem, you may scale the force units in the model.           
  
  

  
  
     D I S T R I B U T E D   D O M A I N   D E C O M P O S E R
  
  ...Number of elements: 47378
  ...Number of nodes:    73128
  ...Decompose to 2 CPU domains
  ...Element load balance ratio =     1.022


                      L O A D   S T E P   O P T I O N S

   LOAD STEP NUMBER. . . . . . . . . . . . . . . .     1
   TIME AT END OF THE LOAD STEP. . . . . . . . . .  2.0000    
   NUMBER OF SUBSTEPS. . . . . . . . . . . . . . .     1
   STEP CHANGE BOUNDARY CONDITIONS . . . . . . . .    NO
   PRINT OUTPUT CONTROLS . . . . . . . . . . . . .NO PRINTOUT
   DATABASE OUTPUT CONTROLS
      ITEM     FREQUENCY   COMPONENT
       ALL       NONE               
      NSOL        ALL               
      RSOL        ALL               
      STRS        ALL               
      EPEL        ALL               
      EPPL        ALL               


 SOLUTION MONITORING INFO IS WRITTEN TO FILE= file.mntr                                                                                                                                                                                                                                                           



                         ***********  PRECISE MASS SUMMARY  ***********

   TOTAL RIGID BODY MASS MATRIX ABOUT ORIGIN
               Translational mass               |   Coupled translational/rotational mass
         1.6327        0.0000        0.0000     |     0.0000      -0.10186E-05  -0.16127E-01
         0.0000        1.6327        0.0000     |    0.10186E-05    0.0000      -0.10197E-05
         0.0000        0.0000        1.6327     |    0.16127E-01   0.10197E-05    0.0000    
     ------------------------------------------ | ------------------------------------------
                                                |         Rotational mass (inertia)
                                                |    0.16653E-02   0.10211E-07  -0.64852E-07
                                                |    0.10211E-07   0.28964E-02   0.10185E-07
                                                |   -0.64852E-07   0.10185E-07   0.16653E-02

   TOTAL MASS =  1.6327    
     The mass principal axes coincide with the global Cartesian axes

   CENTER OF MASS (X,Y,Z)=  -0.62455E-06   0.98775E-02  -0.62386E-06

   TOTAL INERTIA ABOUT CENTER OF MASS
        0.15060E-02   0.13889E-09  -0.64851E-07
        0.13889E-09   0.28964E-02   0.12395E-09
       -0.64851E-07   0.12395E-09   0.15060E-02
     The inertia principal axes coincide with the global Cartesian axes


  *** MASS SUMMARY BY ELEMENT TYPE ***

  TYPE      MASS
     1   1.58341    
     2  0.493230E-01

 Range of element maximum matrix coefficients in global coordinates
 Maximum = 3.577338285E+10 at element 46521.                             
 Minimum = 191346277 at element 27129.                                   

   *** ELEMENT MATRIX FORMULATION TIMES
     TYPE    NUMBER   ENAME      TOTAL CP  AVE CP

        1     44702  SOLID187      4.469   0.000100
        2       816  SOLID186      0.359   0.000440
        3       724  CONTA174      0.109   0.000151
        4       724  TARGE170      0.016   0.000022
        5       412  SURF154       0.016   0.000038
 Time at end of element matrix formulation CP = 6.75.                    

 DISTRIBUTED SPARSE MATRIX DIRECT SOLVER.
  Number of equations =      215607,    Maximum wavefront =    264

  Local memory allocated for solver              =    239.481 MB
  Local memory required for in-core solution     =    886.443 MB
  Local memory required for out-of-core solution =    231.768 MB

  Total memory allocated for solver              =    470.092 MB
  Total memory required for in-core solution     =   1743.102 MB
  Total memory required for out-of-core solution =    455.386 MB

 *** WARNING ***                         CP =      10.234   TIME= 23:55:53
 The Distributed Sparse Matrix Solver is currently running in the        
 out-of-core memory mode.  This memory mode may provide significantly    
 worse performance compared to the in-core memory mode, depending on     
 the amount of available system memory and I/O speed.  Please monitor    
 the solver performance to ensure that the large amount of I/O to the    
 solver files does not create a bottleneck for performance.              
 curEqn=  95834  totEqn= 108414 Job CP sec=     20.391
      Factor Done=  51% Factor Wall sec=     22.352 rate=    3597.8 Mflops
 curEqn= 108414  totEqn= 108414 Job CP sec=     34.750
      Factor Done= 100% Factor Wall sec=     54.112 rate=    2941.0 Mflops
 Distributed sparse solver maximum pivot= 3.345693936E+10 at node 42761  
 UZ.                                                                     
 Distributed sparse solver minimum pivot= 44525695.6 at node 4671 UZ.    
 Distributed sparse solver minimum pivot in absolute value= 44525695.6   
 at node 4671 UZ.                                                        

   *** ELEMENT RESULT CALCULATION TIMES
     TYPE    NUMBER   ENAME      TOTAL CP  AVE CP

        1     44702  SOLID187      2.734   0.000061
        2       816  SOLID186      0.109   0.000134
        3       724  CONTA174      0.047   0.000065
        5       412  SURF154       0.016   0.000038

   *** NODAL LOAD CALCULATION TIMES
     TYPE    NUMBER   ENAME      TOTAL CP  AVE CP

        1     44702  SOLID187      0.188   0.000004
        2       816  SOLID186      0.000   0.000000
        3       724  CONTA174      0.000   0.000000
        5       412  SURF154       0.000   0.000000
 *** LOAD STEP     1   SUBSTEP     1  COMPLETED.    CUM ITER =      1
 *** TIME =   2.00000         TIME INC =   2.00000      NEW TRIANG MATRIX


 *** ANSYS BINARY FILE STATISTICS
  BUFFER SIZE USED= 16384
        5.500 MB WRITTEN ON ELEMENT SAVED DATA FILE: file0.esav
       57.750 MB WRITTEN ON ASSEMBLED MATRIX FILE: file0.full
       18.062 MB WRITTEN ON RESULTS FILE: file0.rst
 *************** Write FE CONNECTORS *********

 WRITE OUT CONSTRAINT EQUATIONS TO FILE= file.ce                                                                                                                                                                                                                                                             
 ****************************************************
 *************** FINISHED SOLVE FOR LS 1 *************

 *GET  _WALLASOL  FROM  ACTI  ITEM=TIME WALL  VALUE=  23.9794444    

 PRINTOUT RESUMED BY /GOP

 FINISH SOLUTION PROCESSING


 ***** ROUTINE COMPLETED *****  CP =        40.328



 *** ANSYS - ENGINEERING ANALYSIS SYSTEM  RELEASE Release 19.2     19.2     ***
 DISTRIBUTED ANSYS Mechanical Enterprise                       

 00000000  VERSION=WINDOWS x64   23:58:55  JUN 04, 2020 CP=     40.375

 lab4--Static Structural (A5)                                                  



          ***** ANSYS RESULTS INTERPRETATION (POST1) *****

 *** NOTE ***                            CP =      40.406   TIME= 23:58:55
 Reading results into the database (SET command) will update the current 
 displacement and force boundary conditions in the database with the     
 values from the results file for that load set.  Note that any          
 subsequent solutions will use these values unless action is taken to    
 either SAVE the current values or not overwrite them (/EXIT,NOSAVE).    

 Set Encoding of XML File to:ISO-8859-1

 Set Output of XML File to:
     PARM,     ,     ,     ,     ,     ,     ,     ,     ,     ,     ,     ,
         ,     ,     ,     ,     ,     ,     ,

 DATABASE WRITTEN ON FILE  parm.xml                                                                                                                                                                                                                                                            

 EXIT THE ANSYS POST1 DATABASE PROCESSOR


 ***** ROUTINE COMPLETED *****  CP =        40.531



 PRINTOUT RESUMED BY /GOP

 *GET  _WALLDONE  FROM  ACTI  ITEM=TIME WALL  VALUE=  23.9819444    

 PARAMETER _PREPTIME =     1.000000000    

 PARAMETER _SOLVTIME =     197.0000000    

 PARAMETER _POSTTIME =     9.000000000    

 PARAMETER _TOTALTIM =     207.0000000    

 EXIT ANSYS WITHOUT SAVING DATABASE


 NUMBER OF WARNING MESSAGES ENCOUNTERED=          4
 NUMBER OF ERROR   MESSAGES ENCOUNTERED=          0

 *** WARNING ***                         CP =      40.812   TIME= 23:58:59
 During this session the elapsed time exceeds the CPU time by 451%.      
 Often this indicates either a lack of physical memory (RAM) required    
 to efficiently handle this simulation or it indicates a particularly    
 slow hard drive configuration.  This simulation can be expected to run  
 faster on identical hardware if additional RAM or a faster hard drive   
 configuration is made available.  For more details, please see the      
 ANSYS Performance Guide which is part of the ANSYS Help system.         

+--------- D I S T R I B U T E D   A N S Y S   S T A T I S T I C S ------------+

Release: Release 19.2       Build: 19.2       Update: UP20180808   Platform: WINDOWS x64 
Date Run: 06/04/2020   Time: 23:58     Process ID: 7128
Operating System: Windows 8  (Build: 9200)

Processor Model: Intel(R) Core(TM) i3-6006U CPU @ 2.00GHz

Compiler: Intel(R) FORTRAN Compiler Version 17.0.4  (Build: 20170411)
          Intel(R) C/C++ Compiler Version 17.0.4  (Build: 20170411)
          Intel(R) Math Kernel Library Version 2017.0.3 Product Build 20170413

Number of machines requested            :    1
Total number of cores available         :    4
Number of physical cores available      :    2
Number of processes requested           :    2
Number of threads per process requested :    1
Total number of cores requested         :    2 (Distributed Memory Parallel)               
MPI Type: INTELMPI
MPI Version: Intel(R) MPI Library 2017 Update 3 for Windows* OS


GPU Acceleration: Not Requested

Job Name: file0
Input File: dummy.dat

  Core                Machine Name   Working Directory
 -----------------------------------------------------
     0             DESKTOP-0BFNCNR   F:\Learning\6 семестр\КСКР\LAB_1\_ProjectScratch\Scr11E1
     1             DESKTOP-0BFNCNR   F:\Learning\6 семестр\КСКР\LAB_1\_ProjectScratch\Scr11E1
 
Latency time from master to core     1 =    4.629 microseconds
 
Communication speed from master to core     1 =  1979.02 MB/sec

Total CPU time for main thread                    :       39.2 seconds
Total CPU time summed for all threads             :       40.8 seconds

Elapsed time spent pre-processing model (/PREP7)  :        1.6 seconds
Elapsed time spent solution - preprocessing       :        8.4 seconds
Elapsed time spent computing solution             :      186.6 seconds
Elapsed time spent solution - postprocessing      :        2.2 seconds
Elapsed time spent post-processing model (/POST1) :        1.1 seconds
 
Equation solver used                              :            Sparse (symmetric)
Equation solver computational rate                :        4.1 Gflops
Equation solver effective I/O rate                :        0.0 GB/sec

Maximum total memory used                         :      949.0 MB
Maximum total memory allocated                    :     3136.0 MB
Total physical memory available                   :          4 GB

Total amount of I/O written to disk               :        1.0 GB
Total amount of I/O read from disk                :        0.8 GB

+------ E N D   D I S T R I B U T E D   A N S Y S   S T A T I S T I C S -------+


 *---------------------------------------------------------------------------*
 |                                                                           |
 |                       DISTRIBUTED ANSYS RUN COMPLETED                     |
 |                                                                           |
 |---------------------------------------------------------------------------|
 |                                                                           |
 | Ansys Release 19.2          Build 19.2         UP20180808     WINDOWS x64 |
 |                                                                           |
 |---------------------------------------------------------------------------|
 |                                                                           |
 | Database Requested(-db)  1024 MB    Scratch Memory Requested      1024 MB |
 | Maximum Database Used      51 MB    Maximum Scratch Memory Used    412 MB |
 |                                                                           |
 |---------------------------------------------------------------------------|
 |                                                                           |
 |        CP Time      (sec) =         40.797       Time  =  23:58:59        |
 |        Elapsed Time (sec) =        216.000       Date  =  06/04/2020      |
 |                                                                           |
 *---------------------------------------------------------------------------*
